*SPEF "IEEE 1481-1998"
*DESIGN "uart"
*DATE "Wed Apr 14 15:49:32 2021"
*VENDOR "AUC CSCE Department"
*PROGRAM "SPEF Extractor"
*VERSION "1.0"
*DESIGN_FLOW "PIN_CAP NONE"
*DIVIDER /
*DELIMITER :
*BUS_DELIMITER []
*T_UNIT 1.00000 NS
*C_UNIT 1.00000 PF
*R_UNIT 1.00000 OHM
*L_UNIT 1.00000 HENRY


*NAME_MAP
*0 UARTn_CTS
*1 UARTn_RTS
*2 UARTn_RXD
*3 UARTn_TXD
*4 clk
*5 _000_
*6 _001_
*7 _002_
*8 _003_
*9 _004_
*10 _005_
*11 _006_
*12 _007_
*13 _008_
*14 _009_
*15 _010_
*16 _011_
*17 _012_
*18 _013_
*19 _014_
*20 _015_
*21 _016_
*22 _017_
*23 _018_
*24 _019_
*25 _020_
*26 _021_
*27 _022_
*28 _023_
*29 _024_
*30 _025_
*31 _026_
*32 _027_
*33 _028_
*34 _029_
*35 _030_
*36 _031_
*37 _032_
*38 _033_
*39 _034_
*40 _035_
*41 _036_
*42 _037_
*43 _038_
*44 _039_
*45 _040_
*46 _041_
*47 _042_
*48 _043_
*49 _044_
*50 _045_
*51 _046_
*52 _047_
*53 _048_
*54 _049_
*55 _050_
*56 _051_
*57 _052_
*58 _053_
*59 _054_
*60 _055_
*61 _056_
*62 _057_
*63 _058_
*64 _059_
*65 _060_
*66 _061_
*67 _062_
*68 _063_
*69 _064_
*70 _065_
*71 _066_
*72 _067_
*73 _068_
*74 _069_
*75 _070_
*76 _071_
*77 _072_
*78 _073_
*79 _074_
*80 _075_
*81 _076_
*82 _077_
*83 _078_
*84 _079_
*85 _080_
*86 _081_
*87 _082_
*88 _083_
*89 _084_
*90 tx_inst.next_state\[0\]
*91 tx_inst.next_state\[1\]
*92 tx_inst.next_state\[2\]
*93 tx_inst.tick\[0\]
*94 tx_inst.tick\[1\]
*95 tx_inst.tick\[2\]
*96 tx_inst.tick\[3\]
*97 tx_inst.transmitted_bit_index\[0\]
*98 tx_inst.transmitted_bit_index\[1\]
*99 tx_inst.transmitted_bit_index\[2\]
*100 tx_inst.u1_tx.acc\[0\]
*101 tx_inst.u1_tx.acc\[1\]
*102 tx_inst.u1_tx.acc\[2\]
*103 tx_inst.u1_tx.acc\[3\]
*104 tx_inst.u1_tx.acc\[4\]
*105 tx_inst.u1_tx.acc\[5\]
*106 tx_inst.u1_tx.acc\[6\]
*107 tx_inst.u1_tx.acc\[7\]
*108 tx_inst.u1_tx.acc\[8\]
*109 tx_inst.u1_tx.acc\[9\]
*110 net1
*111 net2
*112 net3
*113 net4
*114 clknet_0_clk
*115 clknet_1_0_0_clk
*116 clknet_1_1_0_clk

*D_NET *0 0.00534865248516
*CONN
*P UARTn_CTS I
*I input1:A I
*CAP
0 *0:1 0.00067404883232
1 *0:3 6.898398368e-05
2 input1:A 0.00028423114272
3 *0:4 0.0013844916368999996
4 *0:6 0.0029368968895400003
5 *0:2 0
6 *0:7 0
*RES
0 *0:1 *0:2 6.982142857142857
1 *0:3 *0:1 0.6071428571428571
2 input1:A *0:3 2.875
3 *0:4 *0:5 2.4863
4 *0:6 *0:7 33.544642857142854
5 *0:2 *0:6 0
6 input1:A input1:A 0
7 *0:7 *0:5 0
*END

*D_NET *1 0.00119001652222
*CONN
*P UARTn_RTS O
*I output3:X O
*CAP
7 *1:1 0.00063291299678
8 *1:3 0.00055710352544
9 output3:X 0
*RES
8 *1:1 *1:2 7.133928571428571
9 *1:3 output3:X 5.75
10 *1:3 *1:2 0
11 output3:X output3:X 0
*END

*D_NET *2 0.0052301009890000005
*CONN
*P UARTn_RXD I
*I input2:A I
*CAP
10 *2:1 0.0005972748972799999
11 *2:3 0.0005960852944
12 input2:A 4.017137184e-05
13 *2:4 5.029638022e-05
14 *2:6 0.0007813506787200001
15 *2:7 4.640188412000001e-05
16 *2:8 0.00043429369568000003
17 *2:9 0.00026137806884000004
18 *2:10 0.00026215696806
19 *2:11 4.640188412000001e-05
20 *2:14 0.0006749795133
21 *2:15 0.0002576698464
22 *2:16 0.0007341055235999999
23 *2:12 0.00044753498242
24 *2:13 0
25 *2:18 0
*RES
12 *2:1 *2:2 0.30357142857142855
13 *2:3 *2:2 6.160714285714286
14 input2:A *2:3 0.30357142857142855
15 *2:4 *2:5 0.45535714285714285
16 *2:6 *2:4 0.8214285714285714
17 *2:6 *2:7 7.892857142857142
18 *2:7 *2:8 0.4107142857142857
19 *2:8 *2:9 4.857142857142857
20 *2:9 *2:10 2.875
21 *2:10 *2:11 2.883928571428571
22 *2:11 *2:12 0.4107142857142857
23 *2:1 *2:13 5.75
24 *2:14 *2:15 1.1891
25 *2:15 *2:16 0.42613333333333336
26 *2:16 *2:17 1.2972
27 *2:12 *2:18 5.008928571428571
28 input2:A input2:A 0
29 *2:13 *2:5 0
30 *2:18 *2:14 0
*END

*D_NET *3 0.0013371591960599997
*CONN
*P UARTn_TXD O
*I output4:X O
*CAP
26 output4:X 0.0003621946806399999
27 *3:2 0.00015622667414000004
28 *3:4 0.00059318913656
29 *3:3 0.00022554870472
30 *3:1 0
*RES
31 output4:X *3:1 3.6964285714285707
32 *3:2 *3:3 1.669642857142857
33 *3:4 *3:5 6.678571428571428
34 *3:3 *3:4 2.464285714285714
35 output4:X output4:X 0
36 *3:1 *3:2 0
*END

*D_NET *4 0.0033295322274200004
*CONN
*P clk I
*I clkbuf_0_clk:A I
*CAP
31 clkbuf_0_clk:A 0.0001088131824
32 *4:2 0.0006991194304800001
33 *4:3 8.223124824000001e-05
34 *4:4 0.00064615428352
35 *4:6 0.0007322800278600002
36 *4:8 0.0005960852944
37 *4:10 0.00035484597524
38 *4:12 0.00011000278528
39 *4:9 0
40 *4:13 0
*RES
37 clkbuf_0_clk:A *4:1 1.0267857142857142
38 *4:2 *4:3 7.892857142857142
39 *4:3 *4:4 0.8214285714285714
40 *4:4 *4:5 7.285714285714286
41 *4:6 *4:5 0.4107142857142857
42 *4:6 *4:7 7.741071428571428
43 *4:8 *4:9 6.160714285714286
44 *4:10 *4:11 3.946428571428571
45 *4:12 *4:13 0.6160714285714285
46 *4:12 *4:1 0.30357142857142855
47 clkbuf_0_clk:A clkbuf_0_clk:A 0
48 *4:9 *4:7 0
49 *4:8 *4:10 0
50 *4:13 *4:11 0
*END

*D_NET *5 0.00035222135724000006
*CONN
*I _166_:A1 I
*I _163_:X O
*CAP
41 *5:1 0.00030188082828000006
42 *5:3 5.034052896000001e-05
43 _166_:A1 0
44 _163_:X 0
*RES
51 *5:1 *5:2 3.339285714285714
52 *5:3 _163_:X 0.4107142857142857
53 _166_:A1 _166_:A1 0
54 _166_:A1 *5:1 0
55 *5:3 *5:2 0
56 _163_:X _163_:X 0
*END

*D_NET *6 0.006255453715120001
*CONN
*I _168_:A1 I
*I _160_:B I
*I _158_:A1 I
*I _141_:B I
*I _130_:A2 I
*I _129_:X O
*CAP
45 *6:1 0.000743032816
46 *6:3 0.00090793944608
47 *6:5 0.00016728583584
48 *6:6 0.0009639451652800001
49 *6:8 0.0002062676048
50 *6:9 6.898398368e-05
51 _168_:A1 0.00032321291168
52 _141_:B 0.00028423114272
53 *6:7 0.00030188082828000006
54 _130_:A2 9.779659552000001e-05
55 *6:12 0.0007909941392
56 *6:14 9.002024044000002e-05
57 *6:16 0.00011650281392
58 *6:18 0.00061557617888
59 *6:19 4.017137184e-05
60 *6:20 0.00053761264096
61 *6:2 0
62 _160_:B 0
63 *6:4 0
64 *6:21 0
65 _158_:A1 0
66 *6:10 0
67 *6:13 0
68 _129_:X 0
*RES
57 *6:1 *6:2 6.982142857142857
58 *6:1 _160_:B 0.6071428571428571
59 *6:3 *6:4 9.446428571428571
60 *6:5 _168_:A1 1.6428571428571428
61 *6:6 *6:7 10.928571428571427
62 *6:8 _158_:A1 2.0535714285714284
63 *6:9 *6:8 0.6071428571428571
64 _168_:A1 *6:9 3.2857142857142856
65 _141_:B *6:10 2.875
66 *6:7 *6:11 3.339285714285714
67 _130_:A2 *6:12 0.9107142857142857
68 *6:12 *6:13 8.214285714285714
69 *6:14 *6:15 0.9107142857142857
70 *6:16 *6:17 1.2142857142857142
71 *6:18 *6:19 6.366071428571428
72 *6:19 *6:20 0.30357142857142855
73 *6:20 _129_:X 5.544642857142857
74 *6:2 *6:14 0
75 _160_:B _160_:B 0
76 *6:18 *6:16 0
77 *6:3 *6:15 0
78 *6:4 *6:17 0
79 _168_:A1 _168_:A1 0
80 *6:5 *6:7 0
81 *6:21 *6:6 0
82 _158_:A1 _158_:A1 0
83 _141_:B _141_:B 0
84 *6:10 *6:11 0
85 _130_:A2 _130_:A2 0
86 *6:13 *6:22 0
87 _129_:X _129_:X 0
*END

*D_NET *7 0.00110000130044
*CONN
*I _168_:A0 I
*I _156_:B I
*I _155_:X O
*CAP
69 *7:1 0.00061967171004
70 _168_:A0 4.017137184e-05
71 _155_:X 0.00044015821855999997
72 _156_:B 0
*RES
88 *7:1 *7:2 6.982142857142857
89 _168_:A0 *7:3 0.30357142857142855
90 _155_:X *7:3 4.517857142857142
91 _155_:X _155_:X 0
92 _155_:X *7:1 0
93 _156_:B _156_:B 0
94 _156_:B *7:2 0
95 _168_:A0 _168_:A0 0
*END

*D_NET *8 0.0014984766284800001
*CONN
*I _168_:X O
*I _154_:A1 I
*I _153_:B1 I
*I _138_:A1 I
*CAP
73 *8:1 0.00048725884264
74 _138_:A1 0.0002062676048
75 *8:4 0.00019595053436
76 *8:6 0.00012830406688
77 *8:7 4.640188412000001e-05
78 *8:5 0.00043429369568000003
79 _168_:X 0
80 *8:3 0
81 _153_:B1 0
82 _154_:A1 0
*RES
96 *8:1 *8:2 5.4642857142857135
97 _138_:A1 *8:3 2.0535714285714284
98 *8:4 *8:5 2.1249999999999996
99 *8:6 _168_:X 1.232142857142857
100 *8:7 *8:8 0.4107142857142857
101 *8:5 *8:7 4.857142857142857
102 _168_:X _168_:X 0
103 _168_:X *8:2 0
104 *8:3 *8:1 0
105 _138_:A1 _138_:A1 0
106 _153_:B1 _153_:B1 0
107 _153_:B1 *8:5 0
108 *8:6 *8:4 0
109 _154_:A1 _154_:A1 0
110 _154_:A1 *8:8 0
*END

*D_NET *9 0.006417999833320001
*CONN
*I _167_:S I
*I _163_:C I
*I _154_:B1 I
*I _144_:A I
*I _139_:A3 I
*I _134_:X O
*CAP
83 *9:1 0.00018677672031999998
84 *9:2 6.353766696000002e-05
85 _163_:C 0.00074311435776
86 _167_:S 0.00012830406688
87 *9:6 0.0009374625918000002
88 *9:8 8.932229792e-05
89 *9:9 4.017137184e-05
90 *9:10 0.0005960852944
91 *9:11 0.00046077626916000004
92 *9:12 8.932229792e-05
93 *9:13 0.00014298538739999998
94 *9:14 0.0002753982548
95 _139_:A3 0.0002062676048
96 *9:17 0.00032836340175999997
97 *9:19 4.017137184e-05
98 *9:20 0.0007909941392
99 *9:21 4.017137184e-05
100 *9:22 0.00125877536672
101 _154_:B1 0
102 *9:4 0
103 *9:5 0
104 *9:24 0
105 _134_:X 0
106 *9:16 0
107 *9:23 0
108 _144_:A 0
*RES
111 *9:1 _154_:B1 1.8482142857142854
112 *9:2 *9:3 0.6071428571428571
113 _163_:C *9:4 7.709821428571428
114 _167_:S *9:5 1.232142857142857
115 *9:6 *9:7 10.625
116 *9:8 _139_:A3 0.8214285714285714
117 *9:9 *9:8 0.30357142857142855
118 *9:10 *9:9 6.160714285714286
119 *9:11 *9:6 5.160714285714286
120 *9:12 _134_:X 0.8214285714285714
121 *9:13 *9:11 1.5178571428571426
122 *9:14 *9:15 3.035714285714285
123 _139_:A3 *9:16 2.0535714285714284
124 *9:17 *9:18 3.642857142857143
125 *9:19 *9:20 0.30357142857142855
126 *9:20 *9:21 8.214285714285714
127 *9:21 _144_:A 0.30357142857142855
128 *9:22 *9:23 13.142857142857142
129 _154_:B1 _154_:B1 0
130 *9:1 *9:2 0
131 *9:4 *9:3 0
132 _163_:C _163_:C 0
133 _167_:S _167_:S 0
134 *9:5 *9:6 0
135 *9:24 *9:7 0
136 _139_:A3 _139_:A3 0
137 *9:10 *9:11 0
138 _134_:X _134_:X 0
139 *9:12 *9:13 0
140 *9:22 *9:15 0
141 *9:16 *9:14 0
142 *9:23 *9:17 0
143 *9:19 *9:18 0
144 _144_:A _144_:A 0
*END

*D_NET *10 0.001220209552
*CONN
*I _167_:A1 I
*I _160_:Y O
*CAP
109 *10:1 0.0003621946806399999
110 *10:2 0.0008580148713600001
111 _160_:Y 0
112 _167_:A1 0
*RES
145 *10:1 _167_:A1 3.6964285714285707
146 *10:2 *10:3 9.714285714285714
147 _160_:Y _160_:Y 0
148 _160_:Y *10:2 0
149 *10:1 *10:3 0
150 _167_:A1 _167_:A1 0
*END

*D_NET *11 0.00115326102704
*CONN
*I _167_:A0 I
*I _161_:Y O
*CAP
113 *11:1 0.00040117644959999997
114 *11:2 0.00075208457744
115 _167_:A0 0
116 _161_:Y 0
*RES
151 *11:1 _167_:A0 4.107142857142857
152 *11:2 *11:3 8.499999999999998
153 _167_:A0 _167_:A0 0
154 *11:1 *11:2 0
155 _161_:Y _161_:Y 0
156 _161_:Y *11:3 0
*END

*D_NET *12 0.0007718337324
*CONN
*I _170_:A1 I
*I _162_:X O
*CAP
117 *12:1 0.00012830406688
118 *12:2 0.00059318913656
119 *12:4 5.034052896000001e-05
120 _170_:A1 0
121 _162_:X 0
*RES
157 *12:1 _170_:A1 1.232142857142857
158 *12:2 *12:3 6.678571428571428
159 *12:4 _162_:X 0.4107142857142857
160 _170_:A1 _170_:A1 0
161 *12:1 *12:2 0
162 *12:4 *12:3 0
163 _162_:X _162_:X 0
*END

*D_NET *13 0.0012940642894
*CONN
*I _170_:X O
*I _157_:A I
*CAP
122 *13:1 0.00012830406688
123 *13:2 0.0007256020039600001
124 _157_:A 0.00044015821855999997
125 _170_:X 0
126 *13:4 0
*RES
164 *13:1 _170_:X 1.232142857142857
165 *13:2 *13:3 8.196428571428571
166 _157_:A *13:4 4.517857142857142
167 _170_:X _170_:X 0
168 *13:1 *13:2 0
169 *13:4 *13:3 0
170 _157_:A _157_:A 0
*END

*D_NET *14 0.00035484597524
*CONN
*I _169_:X O
*I _158_:B1 I
*CAP
127 *14:1 0.00035484597524
128 _158_:B1 0
129 _169_:X 0
*RES
171 *14:1 *14:2 3.946428571428571
172 _158_:B1 _158_:B1 0
173 _158_:B1 *14:1 0
174 _169_:X _169_:X 0
175 _169_:X *14:2 0
*END

*D_NET *15 0.00145660299804
*CONN
*I _166_:S I
*I _154_:B2 I
*I _153_:Y O
*CAP
130 _166_:S 0.0007909941392
131 _154_:B2 0.00012830406688
132 *15:2 4.017137184e-05
133 *15:3 0.0004078111222
134 _153_:Y 8.932229792e-05
135 *15:5 0
*RES
176 _166_:S _153_:Y 8.214285714285714
177 _154_:B2 *15:1 1.232142857142857
178 *15:2 *15:1 0.30357142857142855
179 *15:3 *15:4 4.553571428571428
180 _153_:Y *15:5 0.8214285714285714
181 _153_:Y _153_:Y 0
182 _166_:S _166_:S 0
183 _154_:B2 _154_:B2 0
184 *15:2 *15:4 0
185 *15:5 *15:3 0
*END

*D_NET *16 0.00389621243592
*CONN
*I _170_:A0 I
*I _162_:B I
*I _151_:Y O
*CAP
136 _162_:B 5.034052896000001e-05
137 *16:2 9.669826434000002e-05
138 *16:5 0.0006858781437400002
139 *16:6 0.00012830406688
140 _151_:Y 0.002934991432
141 *16:1 0
142 _170_:A0 0
143 *16:7 0
*RES
186 _162_:B *16:1 0.4107142857142857
187 *16:2 *16:3 0.45535714285714285
188 *16:2 *16:4 0.4107142857142857
189 *16:5 *16:4 7.741071428571428
190 *16:6 _170_:A0 1.232142857142857
191 _151_:Y *16:7 30.803571428571427
192 _151_:Y _151_:Y 0
193 _162_:B _162_:B 0
194 *16:1 *16:3 0
195 *16:6 *16:5 0
196 _170_:A0 _170_:A0 0
197 *16:7 *16:8 0
*END

*D_NET *17 0.00028760208367999997
*CONN
*I _171_:D I
*I _159_:X O
*CAP
144 _171_:D 0.00017109926975999998
145 *17:2 0.00011650281392
146 *17:1 0
147 _159_:X 0
*RES
198 _171_:D *17:1 1.6830357142857142
199 *17:2 *17:3 1.2142857142857142
200 _171_:D _171_:D 0
201 *17:1 *17:2 0
202 _159_:X _159_:X 0
203 _159_:X *17:3 0
*END

*D_NET *18 0.00027396245272000004
*CONN
*I _172_:D I
*I _152_:X O
*CAP
148 *18:1 0.00016946796088000002
149 _172_:D 1.5172193919999998e-05
150 *18:3 8.932229792e-05
151 _152_:X 0
*RES
204 *18:1 *18:2 1.8214285714285714
205 _172_:D _172_:D 0.040178571428571425
206 *18:3 _152_:X 0.8214285714285714
207 *18:3 *18:1 0
208 _172_:D *18:2 0
209 _172_:D _172_:D 0
210 _152_:X _152_:X 0
*END

*D_NET *19 0.00065870185944
*CONN
*I _173_:D I
*I _150_:X O
*CAP
152 _173_:D 1.5172193919999998e-05
153 *19:1 0.00059318913656
154 _150_:X 5.034052896000001e-05
155 *19:3 0
*RES
211 _173_:D _173_:D 0.040178571428571425
212 *19:1 *19:2 6.678571428571428
213 _150_:X *19:3 0.4107142857142857
214 _173_:D _173_:D 0
215 _173_:D *19:1 0
216 *19:3 *19:2 0
217 _150_:X _150_:X 0
*END

*D_NET *20 0.00093522065776
*CONN
*I _174_:D I
*I _149_:X O
*CAP
156 _149_:X 0.00012830406688
157 *20:1 4.017137184e-05
158 *20:2 0.0003621946806399999
159 *20:4 0.00032836340175999997
160 *20:6 7.618713664000001e-05
161 *20:3 0
162 _174_:D 0
*RES
218 _149_:X *20:1 1.232142857142857
219 *20:1 *20:2 0.30357142857142855
220 *20:2 *20:3 3.6964285714285707
221 *20:4 *20:5 3.642857142857143
222 *20:6 _174_:D 0.6830357142857142
223 _149_:X _149_:X 0
224 *20:3 *20:4 0
225 *20:6 *20:5 0
226 _174_:D _174_:D 0
*END

*D_NET *21 0.00034353559567999997
*CONN
*I _175_:D I
*I _142_:X O
*CAP
163 *21:1 0.00032836340175999997
164 _175_:D 1.5172193919999998e-05
165 _142_:X 0
*RES
227 *21:1 *21:2 3.642857142857143
228 _175_:D _175_:D 0.040178571428571425
229 _142_:X _142_:X 0
230 _142_:X *21:1 0
231 _175_:D *21:2 0
232 _175_:D _175_:D 0
*END

*D_NET *22 0.00197666109148
*CONN
*I _176_:D I
*I _140_:Y O
*CAP
166 *22:1 0.00019595053436
167 *22:3 0.00024524937376
168 _176_:D 0.0015354611833599998
169 *22:4 0
170 _140_:Y 0
*RES
233 *22:1 *22:2 2.1249999999999996
234 *22:3 _140_:Y 2.464285714285714
235 _176_:D *22:4 16.05803571428571
236 _176_:D _176_:D 0
237 *22:4 *22:1 0
238 *22:3 *22:2 0
239 _140_:Y _140_:Y 0
*END

*D_NET *23 0.0001537081816
*CONN
*I _177_:D I
*I _130_:X O
*CAP
171 *23:1 3.720536768e-05
172 *23:2 0.00011650281392
173 _177_:D 0
174 _130_:X 0
*RES
240 *23:1 _177_:D 0.27232142857142855
241 *23:2 *23:3 1.2142857142857142
242 _177_:D _177_:D 0
243 *23:1 *23:2 0
244 _130_:X _130_:X 0
245 _130_:X *23:3 0
*END

*D_NET *24 0.00040644011776000004
*CONN
*I _178_:D I
*I _125_:Y O
*CAP
175 *24:1 0.00012101937216
176 _125_:Y 0.0002854207456
177 _178_:D 0
*RES
246 *24:1 _178_:D 0.732142857142857
247 *24:1 *24:2 0.30357142857142855
248 _125_:Y *24:2 2.464285714285714
249 _125_:Y _125_:Y 0.30357142857142855
250 _178_:D _178_:D 0
251 _125_:Y _125_:Y 0
*END

*D_NET *25 0.00057742620944
*CONN
*I _179_:D I
*I _124_:X O
*CAP
178 _179_:D 0.00024906280768
179 *25:2 0.00032836340175999997
180 *25:1 0
181 _124_:X 0
*RES
252 _179_:D *25:1 2.5044642857142856
253 *25:2 *25:3 3.642857142857143
254 _179_:D _179_:D 0
255 *25:1 *25:2 0
256 _124_:X _124_:X 0
257 _124_:X *25:3 0
*END

*D_NET *26 0.00023498068376000004
*CONN
*I _180_:D I
*I _121_:X O
*CAP
182 _180_:D 1.5172193919999998e-05
183 *26:1 0.00016946796088000002
184 *26:3 5.034052896000001e-05
185 _121_:X 0
*RES
258 _180_:D _180_:D 0.040178571428571425
259 *26:1 *26:2 1.8214285714285714
260 *26:3 _121_:X 0.4107142857142857
261 _180_:D _180_:D 0
262 _180_:D *26:1 0
263 *26:3 *26:2 0
264 _121_:X _121_:X 0
*END

*D_NET *27 0.00041853076856
*CONN
*I _181_:D I
*I _120_:X O
*CAP
186 _181_:D 0.00024906280768
187 *27:2 0.00016946796088000002
188 *27:1 0
189 _120_:X 0
*RES
265 _181_:D *27:1 2.5044642857142856
266 *27:2 *27:3 1.8214285714285714
267 _181_:D _181_:D 0
268 *27:1 *27:2 0
269 _120_:X _120_:X 0
270 _120_:X *27:3 0
*END

*D_NET *28 0.00255467683604
*CONN
*I _182_:D I
*I _115_:A1 I
*I _101_:A I
*I _089_:A I
*I _087_:Y O
*CAP
190 *28:1 0.00055710352544
191 *28:2 0.00022243310784000002
192 _101_:A 0.00032321291168
193 *28:5 0.00012830406688
194 *28:6 0.0001321175008
195 *28:7 0.00016946796088000002
196 *28:9 0.0003621946806399999
197 _115_:A1 4.017137184e-05
198 *28:11 0.00061967171004
199 _089_:A 0
200 *28:4 0
201 _182_:D 0
202 _087_:Y 0
203 *28:10 0
*RES
271 *28:1 _089_:A 5.75
272 *28:2 *28:3 2.4285714285714284
273 _101_:A *28:4 3.2857142857142856
274 *28:5 *28:1 1.232142857142857
275 *28:6 _182_:D 1.2723214285714284
276 *28:7 *28:8 1.8214285714285714
277 *28:9 *28:10 3.6964285714285707
278 _115_:A1 *28:9 0.30357142857142855
279 *28:11 *28:12 6.982142857142857
280 _089_:A _089_:A 0
281 *28:1 *28:3 0
282 *28:4 *28:2 0
283 _101_:A _101_:A 0
284 *28:5 *28:11 0
285 _115_:A1 _115_:A1 0
286 _182_:D _182_:D 0
287 *28:6 *28:7 0
288 _087_:Y _087_:Y 0
289 _087_:Y *28:8 0
290 _182_:D *28:12 0
291 *28:10 *28:13 0
*END

*D_NET *29 0.00145893224944
*CONN
*I _183_:D I
*I _116_:Y O
*CAP
204 _183_:D 0.000424480768
205 *29:1 4.017137184e-05
206 *29:2 0.000498630872
207 *29:4 0.00032836340175999997
208 *29:6 0.00016728583584
209 *29:3 0
210 _116_:Y 0
*RES
292 _183_:D *29:1 4.352678571428571
293 *29:1 *29:2 0.30357142857142855
294 *29:2 *29:3 5.133928571428571
295 *29:4 *29:5 3.642857142857143
296 *29:6 _116_:Y 1.6428571428571428
297 _183_:D _183_:D 0
298 *29:3 *29:4 0
299 *29:6 *29:5 0
300 _116_:Y _116_:Y 0
*END

*D_NET *30 0.00044684127159999994
*CONN
*I _184_:D I
*I _114_:X O
*CAP
211 _184_:D 1.5172193919999998e-05
212 *30:1 5.034052896000001e-05
213 *30:2 0.00038132854871999994
214 _114_:X 0
*RES
301 _184_:D _184_:D 0.040178571428571425
302 *30:1 _114_:X 0.4107142857142857
303 *30:2 *30:3 4.249999999999999
304 _184_:D *30:2 0
305 _184_:D _184_:D 0
306 *30:1 *30:3 0
307 _114_:X _114_:X 0
*END

*D_NET *31 0.0001537081816
*CONN
*I _185_:D I
*I _113_:X O
*CAP
215 *31:1 0.00011650281392
216 *31:3 3.720536768e-05
217 _113_:X 0
218 _185_:D 0
*RES
308 *31:1 *31:2 1.2142857142857142
309 *31:3 _185_:D 0.27232142857142855
310 _113_:X _113_:X 0
311 _113_:X *31:1 0
312 *31:3 *31:2 0
313 _185_:D _185_:D 0
*END

*D_NET *32 0.00017065677680000002
*CONN
*I _186_:D I
*I _112_:X O
*CAP
219 *32:1 0.00011650281392
220 _186_:D 5.415396288e-05
221 _112_:X 0
222 *32:3 0
*RES
314 *32:1 *32:2 1.2142857142857142
315 _186_:D *32:3 0.4508928571428571
316 _112_:X _112_:X 0
317 _112_:X *32:1 0
318 *32:3 *32:2 0
319 _186_:D _186_:D 0
*END

*D_NET *33 0.00030963525744
*CONN
*I _187_:D I
*I _111_:Y O
*CAP
223 *33:1 0.00011650281392
224 _187_:D 0.00019313244352
225 _111_:Y 0
226 *33:3 0
*RES
320 *33:1 *33:2 1.2142857142857142
321 _187_:D *33:3 1.9151785714285712
322 _111_:Y _111_:Y 0
323 _111_:Y *33:1 0
324 *33:3 *33:2 0
325 _187_:D _187_:D 0
*END

*D_NET *34 0.0006417501164
*CONN
*I _188_:D I
*I _109_:X O
*CAP
227 _109_:X 0.00024524937376
228 *34:2 0.00038132854871999994
229 _188_:D 1.5172193919999998e-05
230 *34:1 0
*RES
326 _109_:X *34:1 2.464285714285714
327 *34:2 *34:3 4.249999999999999
328 _188_:D _188_:D 0.040178571428571425
329 _109_:X _109_:X 0
330 *34:1 *34:2 0
331 _188_:D *34:3 0
332 _188_:D _188_:D 0
*END

*D_NET *35 0.00030158546168000005
*CONN
*I _189_:D I
*I _108_:X O
*CAP
231 *35:1 0.00016946796088000002
232 _189_:D 0.0001321175008
233 _108_:X 0
234 *35:3 0
*RES
333 *35:1 *35:2 1.8214285714285714
334 _189_:D *35:3 1.2723214285714284
335 _108_:X _108_:X 0
336 _108_:X *35:1 0
337 *35:3 *35:2 0
338 _189_:D _189_:D 0
*END

*D_NET *36 0.00060836133048
*CONN
*I _190_:D I
*I _105_:Y O
*CAP
235 _190_:D 1.5172193919999998e-05
236 *36:1 0.00059318913656
237 _105_:Y 0
*RES
339 _190_:D _190_:D 0.040178571428571425
340 *36:1 *36:2 6.678571428571428
341 _190_:D _190_:D 0
342 _190_:D *36:1 0
343 _105_:Y _105_:Y 0
344 _105_:Y *36:2 0
*END

*D_NET *37 0.00020404871056000002
*CONN
*I _191_:D I
*I _164_:X O
*CAP
238 *37:1 3.720536768e-05
239 *37:2 0.00011650281392
240 _164_:X 5.034052896000001e-05
241 _191_:D 0
*RES
345 *37:1 _191_:D 0.27232142857142855
346 *37:2 *37:3 1.2142857142857142
347 _164_:X _164_:X 0.4107142857142857
348 _191_:D _191_:D 0
349 *37:1 *37:2 0
350 _164_:X *37:3 0
351 _164_:X _164_:X 0
*END

*D_NET *38 0.00025879025880000005
*CONN
*I _166_:X O
*I _142_:B1 I
*CAP
242 *38:1 0.00016946796088000002
243 _166_:X 8.932229792e-05
244 _142_:B1 0
245 *38:3 0
*RES
352 *38:1 *38:2 1.8214285714285714
353 _166_:X *38:3 0.8214285714285714
354 _142_:B1 _142_:B1 0
355 _142_:B1 *38:1 0
356 *38:3 *38:2 0
357 _166_:X _166_:X 0
*END

*D_NET *39 0.00029777202776
*CONN
*I _167_:X O
*I _130_:B1 I
*CAP
246 *39:1 0.00016946796088000002
247 *39:3 0.00012830406688
248 _130_:B1 0
249 _167_:X 0
*RES
358 *39:1 *39:2 1.8214285714285714
359 *39:3 _167_:X 1.232142857142857
360 _130_:B1 _130_:B1 0
361 _130_:B1 *39:1 0
362 *39:3 *39:2 0
363 _167_:X _167_:X 0
*END

*D_NET *40 0.00187701206164
*CONN
*I _129_:A I
*I _128_:X O
*CAP
250 *40:1 0.0005972748972799999
251 _128_:X 0.00071303060128
252 *40:4 0.00056670656308
253 _129_:A 0
254 *40:3 0
*RES
364 *40:1 *40:2 0.30357142857142855
365 *40:1 *40:3 5.75
366 _128_:X *40:2 7.3928571428571415
367 *40:4 *40:5 6.374999999999999
368 _128_:X _128_:X 0
369 _129_:A _129_:A 0
370 _129_:A *40:4 0
371 *40:3 *40:5 0
*END

*D_NET *41 0.0020346683211200003
*CONN
*I _155_:B I
*I _153_:A1 I
*I _139_:A1 I
*I _131_:Y O
*CAP
255 *41:1 0.0004791399875199999
256 *41:2 0.0008580148713600001
257 *41:4 0.00032321291168
258 _139_:A1 4.017137184e-05
259 *41:6 5.034052896000001e-05
260 *41:3 0.00011650281392
261 _155_:B 0.00016728583584
262 _153_:A1 0
263 _131_:Y 0
264 *41:8 0
*RES
372 *41:1 _153_:A1 4.928571428571428
373 *41:2 *41:3 9.714285714285714
374 *41:4 *41:5 3.2857142857142856
375 _139_:A1 *41:5 0.30357142857142855
376 *41:6 _131_:Y 0.4107142857142857
377 *41:3 *41:7 1.2142857142857142
378 _155_:B *41:8 1.6428571428571428
379 _153_:A1 _153_:A1 0
380 *41:1 *41:3 0
381 *41:4 *41:2 0
382 _139_:A1 _139_:A1 0
383 _131_:Y _131_:Y 0
384 *41:6 *41:7 0
385 _155_:B _155_:B 0
386 *41:8 *41:9 0
*END

*D_NET *42 0.0020590632191200002
*CONN
*I _154_:A3 I
*I _153_:A2 I
*I _139_:A2 I
*I _132_:X O
*CAP
265 *42:1 5.034052896000001e-05
266 *42:2 5.034052896000001e-05
267 *42:3 0.0009109800183200002
268 *42:5 4.640188412000001e-05
269 *42:4 0.00043429369568000003
270 *42:7 0.00056670656308
271 _132_:X 0
272 _139_:A2 0
273 _153_:A2 0
274 _154_:A3 0
*RES
387 *42:1 _132_:X 0.4107142857142857
388 *42:2 _153_:A2 0.4107142857142857
389 *42:3 *42:4 10.321428571428571
390 *42:5 *42:6 0.4107142857142857
391 *42:4 *42:5 4.857142857142857
392 *42:7 *42:3 6.374999999999999
393 _132_:X _132_:X 0
394 *42:1 *42:7 0
395 _139_:A2 _139_:A2 0
396 _139_:A2 *42:3 0
397 _153_:A2 _153_:A2 0
398 *42:2 *42:4 0
399 _154_:A3 _154_:A3 0
400 _154_:A3 *42:6 0
*END

*D_NET *43 0.001776023088
*CONN
*I _136_:A I
*I _134_:A I
*I _133_:X O
*CAP
275 *43:1 0.00023066893018
276 *43:4 5.034052896000001e-05
277 *43:5 0.0005972748972799999
278 *43:2 0.0008977387315800001
279 _133_:X 0
280 _134_:A 0
281 _136_:A 0
282 *43:7 0
*RES
401 *43:1 *43:2 1.6428571428571428
402 *43:1 *43:3 0.7589285714285713
403 *43:4 _133_:X 0.4107142857142857
404 *43:5 _134_:A 5.75
405 *43:5 _136_:A 0.30357142857142855
406 *43:2 *43:6 10.169642857142856
407 *43:4 *43:3 0
408 _133_:X _133_:X 0
409 _134_:A _134_:A 0
410 _136_:A _136_:A 0
411 *43:7 *43:6 0
*END

*D_NET *44 0.00391192324096
*CONN
*I _155_:A I
*I _143_:B I
*I _139_:B1 I
*I _135_:Y O
*CAP
283 *44:1 0.00016946796088000002
284 *44:3 9.002024044000002e-05
285 *44:5 0.00024524937376
286 *44:7 0.00030188082828000006
287 _155_:A 0.00028423114272
288 *44:8 4.017137184e-05
289 *44:9 0.00032321291168
290 *44:2 0.00024891568132000004
291 *44:12 6.898398368e-05
292 *44:13 0.0005960852944
293 *44:15 9.002024044000002e-05
294 *44:17 0.00145368421152
295 _143_:B 0
296 _139_:B1 0
297 *44:6 0
298 *44:10 0
299 *44:14 0
300 _135_:Y 0
*RES
412 *44:1 *44:2 1.8214285714285714
413 *44:3 *44:4 0.9107142857142857
414 *44:5 *44:6 2.464285714285714
415 *44:7 *44:1 3.339285714285714
416 _155_:A *44:8 2.875
417 *44:8 *44:9 0.30357142857142855
418 *44:9 *44:10 3.2857142857142856
419 *44:2 *44:11 2.7321428571428568
420 *44:12 *44:13 0.6071428571428571
421 *44:13 *44:14 6.160714285714286
422 *44:15 *44:16 0.9107142857142857
423 *44:17 *44:12 15.19642857142857
424 _143_:B _143_:B 0
425 _143_:B *44:2 0
426 *44:17 *44:1 0
427 _139_:B1 _139_:B1 0
428 _139_:B1 *44:4 0
429 *44:5 *44:3 0
430 *44:6 *44:7 0
431 _155_:A _155_:A 0
432 *44:10 *44:11 0
433 *44:14 *44:15 0
434 _135_:Y _135_:Y 0
435 _135_:Y *44:16 0
*END

*D_NET *45 0.00169163404728
*CONN
*I _138_:A2 I
*I _136_:Y O
*CAP
301 _136_:Y 0.00110284829088
302 *45:2 0.00038132854871999994
303 *45:4 0.00016728583584
304 _138_:A2 4.017137184e-05
305 *45:1 0
306 *45:5 0
*RES
436 _136_:Y *45:1 11.5
437 *45:2 *45:3 4.249999999999999
438 *45:4 *45:5 1.6428571428571428
439 _138_:A2 *45:4 0.30357142857142855
440 _136_:Y _136_:Y 0
441 *45:1 *45:2 0
442 *45:5 *45:3 0
443 _138_:A2 _138_:A2 0
*END

*D_NET *46 0.0034287504611600003
*CONN
*I _163_:A I
*I _160_:A I
*I _138_:B1 I
*I _137_:Y O
*CAP
307 *46:1 0.00028423114272
308 *46:2 5.034052896000001e-05
309 *46:3 8.932229792e-05
310 *46:4 0.0008580148713600001
311 _138_:B1 4.017137184e-05
312 *46:7 0.0002062676048
313 *46:8 6.898398368e-05
314 *46:9 0.0009469212150399999
315 *46:5 0.00088449744484
316 _163_:A 0
317 _137_:Y 0
318 _160_:A 0
*RES
444 *46:1 _163_:A 2.875
445 *46:2 _137_:Y 0.4107142857142857
446 *46:3 _160_:A 0.8214285714285714
447 *46:4 *46:5 9.714285714285714
448 _138_:B1 *46:6 0.30357142857142855
449 *46:7 *46:6 2.0535714285714284
450 *46:8 *46:7 0.6071428571428571
451 *46:9 *46:8 9.857142857142856
452 *46:5 *46:10 10.017857142857142
453 _163_:A _163_:A 0
454 *46:1 *46:10 0
455 _137_:Y _137_:Y 0
456 *46:2 *46:5 0
457 _160_:A _160_:A 0
458 *46:3 *46:4 0
459 _138_:B1 _138_:B1 0
460 *46:9 *46:11 0
*END

*D_NET *47 0.00019332591635999998
*CONN
*I _139_:B2 I
*I _138_:X O
*CAP
319 *47:1 0.00014298538739999998
320 *47:3 5.034052896000001e-05
321 _139_:B2 0
322 _138_:X 0
*RES
461 *47:1 *47:2 1.5178571428571426
462 *47:3 _138_:X 0.4107142857142857
463 _139_:B2 _139_:B2 0
464 _139_:B2 *47:1 0
465 *47:3 *47:2 0
466 _138_:X _138_:X 0
*END

*D_NET *48 0.0014836864262399998
*CONN
*I _140_:A I
*I _139_:X O
*CAP
323 _140_:A 6.898398368e-05
324 _139_:X 0.0014147024425599998
*RES
467 _140_:A *48:1 0.6071428571428571
468 _139_:X *48:1 14.785714285714283
469 _139_:X _139_:X 0
470 _140_:A _140_:A 0
*END

*D_NET *49 0.0007402602846799999
*CONN
*I _142_:B2 I
*I _141_:Y O
*CAP
325 _142_:B2 4.017137184e-05
326 *49:1 0.00055710352544
327 *49:3 0.00014298538739999998
328 *49:2 0
329 _141_:Y 0
*RES
471 _142_:B2 *49:1 0.30357142857142855
472 *49:1 *49:2 5.75
473 *49:3 *49:4 1.5178571428571426
474 _142_:B2 _142_:B2 0
475 *49:2 *49:3 0
476 _141_:Y _141_:Y 0
477 _141_:Y *49:4 0
*END

*D_NET *50 0.004582515848920001
*CONN
*I _157_:B I
*I _154_:A2 I
*I _153_:C1 I
*I _144_:B I
*I _143_:X O
*CAP
330 *50:1 0.00088449744484
331 *50:3 0.0004023660524799999
332 _153_:C1 0.0005181217564799999
333 _157_:B 4.017137184e-05
334 *50:7 0.00016946796088000002
335 *50:9 0.0005960852944
336 _143_:X 0.0011808118288000001
337 *50:11 0.0007909941392
338 _154_:A2 0
339 *50:4 0
340 *50:5 0
341 *50:10 0
342 _144_:B 0
*RES
478 *50:1 *50:2 10.017857142857142
479 *50:3 _154_:A2 0.30357142857142855
480 *50:3 *50:4 3.6964285714285707
481 _153_:C1 *50:5 5.339285714285714
482 _157_:B *50:6 0.30357142857142855
483 *50:7 *50:8 1.8214285714285714
484 *50:9 _144_:B 6.160714285714286
485 _143_:X *50:10 12.321428571428571
486 *50:11 *50:6 8.214285714285714
487 _143_:X *50:1 0
488 *50:11 *50:2 0
489 _143_:X _143_:X 0
490 _154_:A2 _154_:A2 0
491 *50:4 *50:12 0
492 _153_:C1 _153_:C1 0
493 *50:5 *50:13 0
494 _157_:B _157_:B 0
495 *50:10 *50:7 0
496 *50:9 *50:8 0
497 _144_:B _144_:B 0
*END

*D_NET *51 0.0018039293147599999
*CONN
*I _152_:A2 I
*I _145_:B I
*I _144_:Y O
*CAP
343 *51:1 0.00012830406688
344 *51:2 0.00019595053436
345 *51:4 0.00055710352544
346 *51:6 0.00011650281392
347 _152_:A2 0.00032321291168
348 *51:9 4.017137184e-05
349 *51:10 0.00016728583584
350 *51:3 0.0002753982548
351 _144_:Y 0
352 *51:5 0
353 *51:8 0
354 _145_:B 0
*RES
498 *51:1 _144_:Y 1.232142857142857
499 *51:2 *51:3 2.1249999999999996
500 *51:4 *51:5 5.75
501 *51:6 *51:7 1.2142857142857142
502 _152_:A2 *51:8 3.2857142857142856
503 *51:9 _145_:B 0.30357142857142855
504 *51:10 *51:9 1.6428571428571428
505 *51:3 *51:11 3.035714285714285
506 _144_:Y _144_:Y 0
507 *51:1 *51:3 0
508 *51:5 *51:2 0
509 *51:4 *51:7 0
510 *51:8 *51:6 0
511 _152_:A2 _152_:A2 0
512 _145_:B _145_:B 0
513 *51:10 *51:11 0
*END

*D_NET *52 0.0022260331793999997
*CONN
*I _152_:B1 I
*I _146_:A I
*I _145_:Y O
*CAP
355 *52:1 0.0002062676048
356 *52:2 0.00055346527634
357 *52:4 0.0008129402039999999
358 *52:6 5.029638022e-05
359 _152_:B1 8.932229792e-05
360 *52:9 0.00051374141612
361 _145_:Y 0
362 *52:7 0
363 *52:8 0
364 _146_:A 0
365 *52:11 0
*RES
514 *52:1 _145_:Y 2.0535714285714284
515 *52:2 *52:3 6.223214285714285
516 *52:4 *52:5 1.4413333333333331
517 *52:6 *52:7 0.45535714285714285
518 _152_:B1 *52:8 0.8214285714285714
519 *52:9 *52:10 5.767857142857142
520 _145_:Y _145_:Y 0
521 *52:1 *52:3 0
522 *52:2 *52:5 0
523 *52:7 *52:4 0
524 *52:8 *52:6 0
525 _152_:B1 _152_:B1 0
526 _146_:A _146_:A 0
527 _146_:A *52:10 0
528 *52:11 *52:9 0
*END

*D_NET *53 0.005327566041639999
*CONN
*I _150_:A2 I
*I _149_:A2 I
*I _148_:B I
*I _146_:Y O
*CAP
366 *53:1 0.0017518591068400003
367 *53:3 0.0008712561581000002
368 *53:4 0.00044015821855999997
369 *53:5 0.00038132854871999994
370 *53:7 0.00063506706336
371 *53:8 8.932229792e-05
372 *53:9 0.00022243310784000002
373 *53:11 0.0003621946806399999
374 _150_:A2 4.017137184e-05
375 *53:12 0.00030466435608
376 *53:15 0.00022911113174000004
377 _148_:B 0
378 _146_:Y 0
379 _149_:A2 0
*RES
529 *53:1 *53:2 0.4107142857142857
530 *53:3 *53:2 9.866071428571429
531 *53:4 _148_:B 4.517857142857142
532 *53:5 *53:6 4.249999999999999