*SPEF "IEEE 1481-1998"
*DESIGN "uart"
*DATE "Wed Apr 14 12:30:42 2021"
*VENDOR "AUC CSCE Department"
*PROGRAM "SPEF Extractor"
*VERSION "1.0"
*DESIGN_FLOW "PIN_CAP NONE"
*DIVIDER /
*DELIMITER :
*BUS_DELIMITER []
*T_UNIT 1.00000 NS
*C_UNIT 1.00000 PF
*R_UNIT 1.00000 OHM
*L_UNIT 1.00000 HENRY


*NAME_MAP
*0 UARTn_CTS
*1 UARTn_RTS
*2 UARTn_RXD
*3 UARTn_TXD
*4 clk
*5 _000_
*6 _001_
*7 _002_
*8 _003_
*9 _004_
*10 _005_
*11 _006_
*12 _007_
*13 _008_
*14 _009_
*15 _010_
*16 _011_
*17 _012_
*18 _013_
*19 _014_
*20 _015_
*21 _016_
*22 _017_
*23 _018_
*24 _019_
*25 _020_
*26 _021_
*27 _022_
*28 _023_
*29 _024_
*30 _025_
*31 _026_
*32 _027_
*33 _028_
*34 _029_
*35 _030_
*36 _031_
*37 _032_
*38 _033_
*39 _034_
*40 _035_
*41 _036_
*42 _037_
*43 _038_
*44 _039_
*45 _040_
*46 _041_
*47 _042_
*48 _043_
*49 _044_
*50 _045_
*51 _046_
*52 _047_
*53 _048_
*54 _049_
*55 _050_
*56 _051_
*57 _052_
*58 _053_
*59 _054_
*60 _055_
*61 _056_
*62 _057_
*63 _058_
*64 _059_
*65 _060_
*66 _061_
*67 _062_
*68 _063_
*69 _064_
*70 _065_
*71 _066_
*72 _067_
*73 _068_
*74 _069_
*75 _070_
*76 _071_
*77 _072_
*78 _073_
*79 _074_
*80 _075_
*81 _076_
*82 _077_
*83 _078_
*84 _079_
*85 _080_
*86 _081_
*87 _082_
*88 _083_
*89 _084_
*90 tx_inst.next_state\[0\]
*91 tx_inst.next_state\[1\]
*92 tx_inst.next_state\[2\]
*93 tx_inst.tick\[0\]
*94 tx_inst.tick\[1\]
*95 tx_inst.tick\[2\]
*96 tx_inst.tick\[3\]
*97 tx_inst.transmitted_bit_index\[0\]
*98 tx_inst.transmitted_bit_index\[1\]
*99 tx_inst.transmitted_bit_index\[2\]
*100 tx_inst.u1_tx.acc\[0\]
*101 tx_inst.u1_tx.acc\[1\]
*102 tx_inst.u1_tx.acc\[2\]
*103 tx_inst.u1_tx.acc\[3\]
*104 tx_inst.u1_tx.acc\[4\]
*105 tx_inst.u1_tx.acc\[5\]
*106 tx_inst.u1_tx.acc\[6\]
*107 tx_inst.u1_tx.acc\[7\]
*108 tx_inst.u1_tx.acc\[8\]
*109 tx_inst.u1_tx.acc\[9\]
*110 net1
*111 net2
*112 net3
*113 net4
*114 clknet_0_clk
*115 clknet_1_0_0_clk
*116 clknet_1_1_0_clk

*D_NET *0 0.004553738204800001
*CONN
*P UARTn_CTS I
*I input1:A I
*CAP
0 input1:A 6.898398368e-05
1 *0:2 0.0029368968895400003
2 *0:1 0.0005181217564799999
3 *0:5 0.0010297355751
4 *0:4 0
5 *0:3 0
*RES
0 input1:A *0:1 0.6071428571428571
1 *0:2 *0:3 33.544642857142854
2 *0:1 *0:4 5.339285714285714
3 *0:5 *0:6 1.8377
4 input1:A input1:A 0
5 *0:4 *0:2 0
6 *0:3 *0:6 0
*END

*D_NET *1 0.00119001652222
*CONN
*P UARTn_RTS O
*I output3:X O
*CAP
6 *1:1 0.00063291299678
7 *1:3 0.00055710352544
8 output3:X 0
*RES
7 *1:1 *1:2 7.133928571428571
8 *1:3 output3:X 5.75
9 *1:3 *1:2 0
10 output3:X output3:X 0
*END

*D_NET *2 0.0023154563823999997
*CONN
*P UARTn_RXD I
*I input2:A I
*CAP
9 *2:1 0.0017981462299
10 *2:3 0.0005173101524999999
11 input2:A 0
12 *2:2 0
*RES
11 *2:1 *2:2 20.491071428571427
12 *2:3 *2:4 0.9008333333333334
13 input2:A input2:A 0
14 input2:A *2:1 0
15 *2:2 *2:3 0
*END

*D_NET *3 0.00133715919606
*CONN
*P UARTn_TXD O
*I output4:X O
*CAP
13 output4:X 0.0003621946806399999
14 *3:2 0.00015622667414000004
15 *3:3 0.00022554870472
16 *3:4 0.00059318913656
17 *3:1 0
*RES
16 output4:X *3:1 3.6964285714285707
17 *3:2 *3:3 1.669642857142857
18 *3:3 *3:4 2.464285714285714
19 *3:4 *3:5 6.678571428571428
20 output4:X output4:X 0
21 *3:1 *3:2 0
*END

*D_NET *4 0.0033048409089800005
*CONN
*P clk I
*I clkbuf_0_clk:A I
*CAP
18 *4:1 8.223124824000001e-05
19 *4:2 0.0010036690255000001
20 *4:4 0.0006159183519999999
21 *4:7 0.00028423114272
22 *4:8 0.00019595053436
23 *4:10 0.0011228406061600002
24 *4:5 0
25 clkbuf_0_clk:A 0
*RES
22 *4:1 *4:2 0.8214285714285714
23 *4:2 *4:3 11.383928571428571
24 *4:4 *4:5 5.339285714285714
25 *4:4 *4:6 0.9107142857142857
26 *4:7 *4:6 2.875
27 *4:8 *4:9 2.1249999999999996
28 *4:10 *4:1 12.749999999999998
29 *4:5 *4:3 0
30 *4:7 *4:8 0
31 clkbuf_0_clk:A clkbuf_0_clk:A 0
32 clkbuf_0_clk:A *4:9 0
*END

*D_NET *5 0.00035222135724000006
*CONN
*I _166_:A1 I
*I _163_:X O
*CAP
26 *5:1 0.00030188082828000006
27 *5:3 5.034052896000001e-05
28 _166_:A1 0
29 _163_:X 0
*RES
33 *5:1 *5:2 3.339285714285714
34 *5:3 _163_:X 0.4107142857142857
35 _166_:A1 _166_:A1 0
36 _166_:A1 *5:1 0
37 *5:3 *5:2 0
38 _163_:X _163_:X 0
*END

*D_NET *6 0.00505234934774
*CONN
*I _168_:A1 I
*I _160_:B I
*I _158_:A1 I
*I _141_:B I
*I _130_:A2 I
*I _129_:X O
*CAP
30 *6:1 0.00097692342976
31 *6:2 0.00016728583584
32 *6:3 0.0011493231796400002
33 *6:5 0.00075201237024
34 *6:6 0.00016728583584
35 *6:7 6.898398368e-05
36 _168_:A1 0.0003621946806399999
37 *6:8 7.021569086000002e-05
38 _141_:B 0.00028423114272
39 *6:4 0.00030188082828000006
40 _130_:A2 0.00075201237024
41 _160_:B 0
42 _129_:X 0
43 _158_:A1 0
44 *6:13 0
45 *6:14 0
46 *6:11 0
*RES
39 *6:1 _160_:B 0.6071428571428571
40 *6:2 _168_:A1 1.6428571428571428
41 *6:3 *6:4 13.053571428571427
42 *6:5 _129_:X 7.803571428571428
43 *6:6 _158_:A1 1.6428571428571428
44 *6:7 *6:6 0.6071428571428571
45 _168_:A1 *6:7 3.6964285714285707
46 *6:8 *6:9 0.15178571428571427
47 *6:8 *6:10 0.4107142857142857
48 _141_:B *6:11 2.875
49 *6:4 *6:12 3.339285714285714
50 *6:1 *6:13 9.446428571428571
51 _130_:A2 *6:14 7.803571428571428
52 _160_:B _160_:B 0
53 _130_:A2 _130_:A2 0
54 _168_:A1 _168_:A1 0
55 *6:2 *6:4 0
56 *6:5 *6:3 0
57 _129_:X _129_:X 0
58 _158_:A1 _158_:A1 0
59 *6:13 *6:15 0
60 *6:14 *6:9 0
61 _141_:B _141_:B 0
62 *6:11 *6:12 0
*END

*D_NET *7 0.00110000130044
*CONN
*I _168_:A0 I
*I _156_:B I
*I _155_:X O
*CAP
47 *7:1 0.00061967171004
48 _168_:A0 4.017137184e-05
49 _155_:X 0.00044015821855999997
50 _156_:B 0
*RES
63 *7:1 *7:2 6.982142857142857
64 _168_:A0 *7:3 0.30357142857142855
65 _155_:X *7:3 4.517857142857142
66 _155_:X _155_:X 0
67 _155_:X *7:1 0
68 _156_:B _156_:B 0
69 _156_:B *7:2 0
70 _168_:A0 _168_:A0 0
*END

*D_NET *8 0.00158825145668
*CONN
*I _168_:X O
*I _154_:A1 I
*I _153_:B1 I
*I _138_:A1 I
*CAP
51 *8:1 5.034052896000001e-05
52 *8:2 0.00048725884264
53 _138_:A1 0.00016728583584
54 *8:5 4.017137184e-05
55 *8:6 8.932229792e-05
56 *8:7 4.017137184e-05
57 *8:3 0.00014298538739999998
58 *8:9 2.3813806740000006e-05
59 *8:10 4.640188412000001e-05
60 *8:8 0.0005005001293800001
61 _168_:X 0
62 *8:4 0
63 _153_:B1 0
64 _154_:A1 0
*RES
71 *8:1 _168_:X 0.4107142857142857
72 *8:2 *8:3 5.4642857142857135
73 _138_:A1 *8:4 1.6428571428571428
74 *8:5 _153_:B1 0.30357142857142855
75 *8:6 *8:5 0.8214285714285714
76 *8:7 *8:6 0.30357142857142855
77 *8:3 *8:8 1.5178571428571426
78 *8:9 *8:10 0.15178571428571427
79 *8:10 *8:11 0.4107142857142857
80 *8:8 *8:11 5.616071428571428
81 _168_:X _168_:X 0
82 *8:1 *8:3 0
83 *8:4 *8:2 0
84 _138_:A1 _138_:A1 0
85 _153_:B1 _153_:B1 0
86 *8:7 *8:8 0
87 _154_:A1 _154_:A1 0
88 _154_:A1 *8:9 0
*END

*D_NET *9 0.006547244990879999
*CONN
*I _167_:S I
*I _163_:C I
*I _154_:B1 I
*I _144_:A I
*I _139_:A3 I
*I _134_:X O
*CAP
65 _163_:C 0.00021219961312000002
66 *9:2 4.017137184e-05
67 *9:3 0.00045964910303999994
68 *9:4 0.00033372424191999996
69 *9:5 4.017137184e-05
70 _139_:A3 5.034052896000001e-05
71 *9:7 2.3813806740000006e-05
72 *9:9 0.0013253656266
73 *9:11 0.00039456983545999995
74 _134_:X 0.00024524937376
75 *9:13 4.017137184e-05
76 *9:14 0.0003621946806399999
77 *9:16 0.0002753982548
78 _167_:S 0.00024524937376
79 *9:18 0.0006991194304800001
80 *9:19 4.640188412000001e-05
81 *9:20 0.00088449744484
82 *9:22 0.00086895767712
83 _144_:A 0
84 _154_:B1 0
85 *9:6 0
86 *9:8 0
87 *9:15 0
88 *9:17 0
*RES
89 _163_:C *9:1 2.1160714285714284
90 *9:2 _144_:A 0.30357142857142855
91 *9:3 _154_:B1 4.723214285714286
92 *9:4 *9:1 0.6071428571428571
93 *9:4 *9:5 2.669642857142857
94 *9:5 *9:3 0.30357142857142855
95 _139_:A3 *9:6 0.4107142857142857
96 *9:7 *9:8 0.15178571428571427
97 *9:9 *9:10 2.3782
98 *9:11 *9:12 4.4017857142857135
99 _134_:X *9:13 2.464285714285714
100 *9:13 *9:14 0.30357142857142855
101 *9:14 *9:15 3.6964285714285707
102 *9:16 *9:7 3.035714285714285
103 _167_:S *9:17 2.464285714285714
104 *9:18 *9:19 7.892857142857142
105 *9:19 *9:20 0.4107142857142857
106 *9:20 *9:21 10.017857142857142
107 *9:22 *9:2 9.035714285714285
108 _163_:C _163_:C 0
109 _144_:A _144_:A 0
110 _154_:B1 _154_:B1 0
111 *9:3 *9:21 0
112 _139_:A3 _139_:A3 0
113 *9:6 *9:7 0
114 *9:8 *9:9 0
115 *9:11 *9:10 0
116 *9:22 *9:12 0
117 _134_:X _134_:X 0
118 *9:15 *9:16 0
119 _167_:S _167_:S 0
120 *9:17 *9:19 0
121 _134_:X *9:18 0
*END

*D_NET *10 0.001220209552
*CONN
*I _167_:A1 I
*I _160_:Y O
*CAP
89 *10:1 0.0008580148713600001
90 *10:3 0.0003621946806399999
91 _160_:Y 0
92 _167_:A1 0
*RES
122 *10:1 *10:2 9.714285714285714
123 *10:3 _167_:A1 3.6964285714285707
124 _160_:Y _160_:Y 0
125 _160_:Y *10:1 0
126 *10:3 *10:2 0
127 _167_:A1 _167_:A1 0
*END

*D_NET *11 0.00115326102704
*CONN
*I _167_:A0 I
*I _161_:Y O
*CAP
93 *11:1 0.00040117644959999997
94 *11:2 0.00075208457744
95 _167_:A0 0
96 _161_:Y 0
*RES
128 *11:1 _167_:A0 4.107142857142857
129 *11:2 *11:3 8.499999999999998
130 _167_:A0 _167_:A0 0
131 *11:1 *11:2 0
132 _161_:Y _161_:Y 0
133 _161_:Y *11:3 0
*END

*D_NET *12 0.0007718337324
*CONN
*I _170_:A1 I
*I _162_:X O
*CAP
97 *12:1 0.00012830406688
98 *12:2 0.00059318913656
99 *12:4 5.034052896000001e-05
100 _170_:A1 0
101 _162_:X 0
*RES
134 *12:1 _170_:A1 1.232142857142857
135 *12:2 *12:3 6.678571428571428
136 *12:4 _162_:X 0.4107142857142857
137 _170_:A1 _170_:A1 0
138 *12:1 *12:2 0
139 *12:4 *12:3 0
140 _162_:X _162_:X 0
*END

*D_NET *13 0.00147647393872
*CONN
*I _170_:X O
*I _157_:A I
*CAP
102 *13:1 0.00063506706336
103 *13:2 0.00075208457744
104 *13:4 8.932229792e-05
105 _170_:X 0
106 _157_:A 0
*RES
141 *13:1 _170_:X 6.571428571428571
142 *13:2 *13:3 8.499999999999998
143 *13:4 _157_:A 0.8214285714285714
144 _170_:X _170_:X 0
145 *13:1 *13:2 0
146 *13:4 *13:3 0
147 _157_:A _157_:A 0
*END

*D_NET *14 0.00035484597524
*CONN
*I _169_:X O
*I _158_:B1 I
*CAP
107 *14:1 0.00035484597524
108 _158_:B1 0
109 _169_:X 0
*RES
148 *14:1 *14:2 3.946428571428571
149 _158_:B1 _158_:B1 0
150 _158_:B1 *14:1 0
151 _169_:X _169_:X 0
152 _169_:X *14:2 0
*END

*D_NET *15 0.00151189818336
*CONN
*I _166_:S I
*I _154_:B2 I
*I _153_:Y O
*CAP
110 *15:1 0.00090912904896
111 _154_:B2 0.00012830406688
112 *15:3 4.017137184e-05
113 *15:4 0.00043429369568000003
114 _166_:S 0
115 _153_:Y 0
*RES
153 *15:1 _166_:S 0.30357142857142855
154 _154_:B2 *15:2 1.232142857142857
155 *15:3 *15:2 0.30357142857142855
156 *15:4 *15:5 4.857142857142857
157 *15:1 _153_:Y 9.035714285714285
158 _166_:S _166_:S 0
159 _154_:B2 _154_:B2 0
160 *15:3 *15:5 0
161 _153_:Y _153_:Y 0
162 _153_:Y *15:4 0
*END

*D_NET *16 0.00393516309706
*CONN
*I _170_:A0 I
*I _162_:B I
*I _151_:Y O
*CAP
116 _151_:Y 0.000498630872
117 *16:2 0.00030188082828000006
118 *16:4 4.017137184e-05
119 *16:6 0.00236975578208
120 *16:1 4.017137184e-05
121 *16:7 0.00012830406688
122 *16:8 0.00047401755590000005
123 *16:10 8.223124824000001e-05
124 _162_:B 0
125 _170_:A0 0
*RES
163 _151_:Y *16:1 5.133928571428571
164 *16:2 *16:3 3.339285714285714
165 *16:4 *16:5 0.30357142857142855
166 *16:6 *16:5 24.84821428571428
167 *16:1 *16:6 0.30357142857142855
168 *16:7 _170_:A0 1.232142857142857
169 *16:8 *16:9 5.3125
170 *16:10 *16:9 0.8214285714285714
171 _151_:Y _151_:Y 0
172 _162_:B _162_:B 0
173 _162_:B *16:3 0
174 *16:4 *16:2 0
175 _170_:A0 _170_:A0 0
176 *16:7 *16:8 0
*END

*D_NET *17 0.00028760208367999997
*CONN
*I _171_:D I
*I _159_:X O
*CAP
126 _171_:D 0.00017109926975999998
127 *17:2 0.00011650281392
128 *17:1 0
129 _159_:X 0
*RES
177 _171_:D *17:1 1.6830357142857142
178 *17:2 *17:3 1.2142857142857142
179 _171_:D _171_:D 0
180 *17:1 *17:2 0
181 _159_:X _159_:X 0
182 _159_:X *17:3 0
*END

*D_NET *18 0.00027396245272000004
*CONN
*I _172_:D I
*I _152_:X O
*CAP
130 *18:1 8.932229792e-05
131 *18:2 0.00016946796088000002
132 _172_:D 1.5172193919999998e-05
133 _152_:X 0
*RES
183 *18:1 _152_:X 0.8214285714285714
184 *18:2 *18:3 1.8214285714285714
185 _172_:D _172_:D 0.040178571428571425
186 _152_:X _152_:X 0
187 *18:1 *18:2 0
188 _172_:D *18:3 0
189 _172_:D _172_:D 0
*END

*D_NET *19 0.00065870185944
*CONN
*I _173_:D I
*I _150_:X O
*CAP
134 _173_:D 1.5172193919999998e-05
135 *19:1 0.00059318913656
136 _150_:X 5.034052896000001e-05
137 *19:3 0
*RES
190 _173_:D _173_:D 0.040178571428571425
191 *19:1 *19:2 6.678571428571428
192 _150_:X *19:3 0.4107142857142857
193 _173_:D _173_:D 0
194 _173_:D *19:1 0
195 *19:3 *19:2 0
196 _150_:X _150_:X 0
*END

*D_NET *20 0.0009101730994
*CONN
*I _174_:D I
*I _149_:X O
*CAP
138 _149_:X 0.0004791399875199999
139 *20:2 0.00035484597524
140 *20:4 7.618713664000001e-05
141 *20:1 0
142 _174_:D 0
*RES
197 _149_:X *20:1 4.928571428571428
198 *20:2 *20:3 3.946428571428571
199 *20:4 _174_:D 0.6830357142857142
200 _149_:X _149_:X 0
201 *20:1 *20:2 0
202 *20:4 *20:3 0
203 _174_:D _174_:D 0
*END

*D_NET *21 0.00034353559567999997
*CONN
*I _175_:D I
*I _142_:X O
*CAP
143 *21:1 0.00032836340175999997
144 _175_:D 1.5172193919999998e-05
145 _142_:X 0
*RES
204 *21:1 *21:2 3.642857142857143
205 _175_:D _175_:D 0.040178571428571425
206 _142_:X _142_:X 0
207 _142_:X *21:1 0
208 _175_:D *21:2 0
209 _175_:D _175_:D 0
*END

*D_NET *22 0.0016088765756400003
*CONN
*I _176_:D I
*I _140_:Y O
*CAP
146 _176_:D 0.00116767666752
147 *22:2 0.00019595053436
148 *22:4 0.00024524937376
149 *22:1 0
150 _140_:Y 0
*RES
210 _176_:D *22:1 12.183035714285714
211 *22:2 *22:3 2.1249999999999996
212 *22:4 _140_:Y 2.464285714285714
213 _176_:D _176_:D 0
214 *22:1 *22:2 0
215 *22:4 *22:3 0
216 _140_:Y _140_:Y 0
*END

*D_NET *23 0.0001537081816
*CONN
*I _177_:D I
*I _130_:X O
*CAP
151 *23:1 3.720536768e-05
152 *23:2 0.00011650281392
153 _177_:D 0
154 _130_:X 0
*RES
217 *23:1 _177_:D 0.27232142857142855
218 *23:2 *23:3 1.2142857142857142
219 _177_:D _177_:D 0
220 *23:1 *23:2 0
221 _130_:X _130_:X 0
222 _130_:X *23:3 0
*END

*D_NET *24 0.00040644011776000004
*CONN
*I _178_:D I
*I _125_:Y O
*CAP
155 *24:1 0.00012101937216
156 _125_:Y 0.0002854207456
157 _178_:D 0
*RES
223 *24:1 _178_:D 0.732142857142857
224 *24:1 *24:2 0.30357142857142855
225 _125_:Y *24:2 2.464285714285714
226 _125_:Y _125_:Y 0.30357142857142855
227 _178_:D _178_:D 0
228 _125_:Y _125_:Y 0
*END

*D_NET *25 0.00057742620944
*CONN
*I _179_:D I
*I _124_:X O
*CAP
158 _179_:D 0.00024906280768
159 *25:2 0.00032836340175999997
160 *25:1 0
161 _124_:X 0
*RES
229 _179_:D *25:1 2.5044642857142856
230 *25:2 *25:3 3.642857142857143
231 _179_:D _179_:D 0
232 *25:1 *25:2 0
233 _124_:X _124_:X 0
234 _124_:X *25:3 0
*END

*D_NET *26 0.00023498068376000004
*CONN
*I _180_:D I
*I _121_:X O
*CAP
162 _180_:D 1.5172193919999998e-05
163 *26:1 0.00016946796088000002
164 *26:3 5.034052896000001e-05
165 _121_:X 0
*RES
235 _180_:D _180_:D 0.040178571428571425
236 *26:1 *26:2 1.8214285714285714
237 *26:3 _121_:X 0.4107142857142857
238 _180_:D _180_:D 0
239 _180_:D *26:1 0
240 *26:3 *26:2 0
241 _121_:X _121_:X 0
*END

*D_NET *27 0.00041853076856
*CONN
*I _181_:D I
*I _120_:X O
*CAP
166 _181_:D 0.00024906280768
167 *27:2 0.00016946796088000002
168 *27:1 0
169 _120_:X 0
*RES
242 _181_:D *27:1 2.5044642857142856
243 *27:2 *27:3 1.8214285714285714
244 _181_:D _181_:D 0
245 *27:1 *27:2 0
246 _120_:X _120_:X 0
247 _120_:X *27:3 0
*END

*D_NET *28 0.00230044790804
*CONN
*I _182_:D I
*I _115_:A1 I
*I _101_:A I
*I _089_:A I
*I _087_:Y O
*CAP
170 _115_:A1 8.932229792e-05
171 *28:2 0.00064615428352
172 _101_:A 8.932229792e-05
173 *28:5 0.0001321175008
174 *28:3 0.00019595053436
175 *28:6 0.00016946796088000002
176 *28:8 5.034052896000001e-05
177 *28:9 9.779659552000001e-05
178 *28:10 0.00082997590816
179 *28:1 0
180 *28:4 0
181 _182_:D 0
182 _087_:Y 0
183 _089_:A 0
*RES
248 _115_:A1 *28:1 0.8214285714285714
249 *28:2 *28:3 7.285714285714286
250 _101_:A *28:4 0.8214285714285714
251 *28:5 _182_:D 1.2723214285714284
252 *28:3 *28:6 2.1249999999999996
253 *28:6 *28:7 1.8214285714285714
254 *28:8 _089_:A 0.4107142857142857
255 *28:9 *28:8 0.9107142857142857
256 *28:10 *28:9 8.625
257 _115_:A1 _115_:A1 0
258 *28:1 *28:3 0
259 *28:4 *28:2 0
260 _101_:A _101_:A 0
261 _182_:D _182_:D 0
262 *28:5 *28:6 0
263 _087_:Y _087_:Y 0
264 _087_:Y *28:7 0
265 _089_:A _089_:A 0
266 *28:10 *28:11 0
*END

*D_NET *29 0.00042149913359999997
*CONN
*I _183_:D I
*I _116_:Y O
*CAP
184 _183_:D 9.313573184e-05
185 *29:2 0.00032836340175999997
186 *29:1 0
187 _116_:Y 0
*RES
267 _183_:D *29:1 0.8616071428571428
268 *29:2 *29:3 3.642857142857143
269 _183_:D _183_:D 0
270 *29:1 *29:2 0
271 _116_:Y _116_:Y 0
272 _116_:Y *29:3 0
*END

*D_NET *30 0.00044684127159999994
*CONN
*I _184_:D I
*I _114_:X O
*CAP
188 _184_:D 1.5172193919999998e-05
189 *30:1 0.00038132854871999994
190 *30:3 5.034052896000001e-05
191 _114_:X 0
*RES
273 _184_:D _184_:D 0.040178571428571425
274 *30:1 *30:2 4.249999999999999
275 *30:3 _114_:X 0.4107142857142857
276 _184_:D _184_:D 0
277 _184_:D *30:1 0
278 *30:3 *30:2 0
279 _114_:X _114_:X 0
*END

*D_NET *31 0.0001537081816
*CONN
*I _185_:D I
*I _113_:X O
*CAP
192 *31:1 0.00011650281392
193 *31:3 3.720536768e-05
194 _113_:X 0
195 _185_:D 0
*RES
280 *31:1 *31:2 1.2142857142857142
281 *31:3 _185_:D 0.27232142857142855
282 _113_:X _113_:X 0
283 _113_:X *31:1 0
284 *31:3 *31:2 0
285 _185_:D _185_:D 0
*END

*D_NET *32 0.00017065677680000002
*CONN
*I _186_:D I
*I _112_:X O
*CAP
196 *32:1 0.00011650281392
197 _186_:D 5.415396288e-05
198 _112_:X 0
199 *32:3 0
*RES
286 *32:1 *32:2 1.2142857142857142
287 _186_:D *32:3 0.4508928571428571
288 _112_:X _112_:X 0
289 _112_:X *32:1 0
290 *32:3 *32:2 0
291 _186_:D _186_:D 0
*END

*D_NET *33 0.00030963525744
*CONN
*I _187_:D I
*I _111_:Y O
*CAP
200 _187_:D 0.00019313244352
201 *33:2 0.00011650281392
202 _111_:Y 0
203 *33:1 0
*RES
292 _187_:D *33:1 1.9151785714285712
293 *33:2 *33:3 1.2142857142857142
294 _111_:Y _111_:Y 0
295 _111_:Y *33:2 0
296 *33:1 *33:3 0
297 _187_:D _187_:D 0
*END

*D_NET *34 0.0006417501164
*CONN
*I _188_:D I
*I _109_:X O
*CAP
204 _109_:X 0.00024524937376
205 *34:2 0.00038132854871999994
206 _188_:D 1.5172193919999998e-05
207 *34:1 0
*RES
298 _109_:X *34:1 2.464285714285714
299 *34:2 *34:3 4.249999999999999
300 _188_:D _188_:D 0.040178571428571425
301 _109_:X _109_:X 0
302 *34:1 *34:2 0
303 _188_:D *34:3 0
304 _188_:D _188_:D 0
*END

*D_NET *35 0.00030158546168000005
*CONN
*I _189_:D I
*I _108_:X O
*CAP
208 *35:1 0.00016946796088000002
209 _189_:D 0.0001321175008
210 _108_:X 0
211 *35:3 0
*RES
305 *35:1 *35:2 1.8214285714285714
306 _189_:D *35:3 1.2723214285714284
307 _108_:X _108_:X 0
308 _108_:X *35:1 0
309 *35:3 *35:2 0
310 _189_:D _189_:D 0
*END

*D_NET *36 0.00060836133048
*CONN
*I _190_:D I
*I _105_:Y O
*CAP
212 _190_:D 1.5172193919999998e-05
213 *36:1 0.00059318913656
214 _105_:Y 0
*RES
311 _190_:D _190_:D 0.040178571428571425
312 *36:1 *36:2 6.678571428571428
313 _190_:D _190_:D 0
314 _190_:D *36:1 0
315 _105_:Y _105_:Y 0
316 _105_:Y *36:2 0
*END

*D_NET *37 0.00020404871056000002
*CONN
*I _191_:D I
*I _164_:X O
*CAP
215 *37:1 3.720536768e-05
216 *37:2 0.00011650281392
217 _164_:X 5.034052896000001e-05
218 _191_:D 0
*RES
317 *37:1 _191_:D 0.27232142857142855
318 *37:2 *37:3 1.2142857142857142
319 _164_:X _164_:X 0.4107142857142857
320 _191_:D _191_:D 0
321 *37:1 *37:2 0
322 _164_:X *37:3 0
323 _164_:X _164_:X 0
*END

*D_NET *38 0.00025879025880000005
*CONN
*I _166_:X O
*I _142_:B1 I
*CAP
219 *38:1 0.00016946796088000002
220 _166_:X 8.932229792e-05
221 _142_:B1 0
222 *38:3 0
*RES
324 *38:1 *38:2 1.8214285714285714
325 _166_:X *38:3 0.8214285714285714
326 _142_:B1 _142_:B1 0
327 _142_:B1 *38:1 0
328 *38:3 *38:2 0
329 _166_:X _166_:X 0
*END

*D_NET *39 0.00029777202776
*CONN
*I _167_:X O
*I _130_:B1 I
*CAP
223 *39:1 0.00016946796088000002
224 *39:3 0.00012830406688
225 _130_:B1 0
226 _167_:X 0
*RES
330 *39:1 *39:2 1.8214285714285714
331 *39:3 _167_:X 1.232142857142857
332 _130_:B1 _130_:B1 0
333 _130_:B1 *39:1 0
334 *39:3 *39:2 0
335 _167_:X _167_:X 0
*END

*D_NET *40 0.0010101768937200001
*CONN
*I _129_:A I
*I _128_:X O
*CAP
227 *40:1 8.932229792e-05
228 *40:2 0.00083153229788
229 _128_:X 8.932229792e-05
230 _129_:A 0
231 *40:4 0
*RES
336 *40:1 _129_:A 0.8214285714285714
337 *40:2 *40:3 9.410714285714285
338 _128_:X *40:4 0.8214285714285714
339 _129_:A _129_:A 0
340 *40:1 *40:2 0
341 *40:4 *40:3 0
342 _128_:X _128_:X 0
*END

*D_NET *41 0.0016838324004800002
*CONN
*I _155_:B I
*I _153_:A1 I
*I _139_:A1 I
*I _131_:Y O
*CAP
232 *41:1 0.00012830406688
233 *41:2 0.00083153229788
234 *41:4 0.00032321291168
235 _139_:A1 4.017137184e-05
236 *41:6 5.034052896000001e-05
237 *41:3 0.00014298538739999998
238 _155_:B 0.00016728583584
239 _153_:A1 0
240 _131_:Y 0
241 *41:8 0
*RES
343 *41:1 _153_:A1 1.232142857142857
344 *41:2 *41:3 9.410714285714285
345 *41:4 *41:5 3.2857142857142856
346 _139_:A1 *41:5 0.30357142857142855
347 *41:6 _131_:Y 0.4107142857142857
348 *41:3 *41:7 1.5178571428571426
349 _155_:B *41:8 1.6428571428571428
350 _153_:A1 _153_:A1 0
351 *41:1 *41:3 0
352 *41:4 *41:2 0
353 _139_:A1 _139_:A1 0
354 _131_:Y _131_:Y 0
355 *41:6 *41:7 0
356 _155_:B _155_:B 0
357 *41:8 *41:9 0
*END

*D_NET *42 0.002012661335
*CONN
*I _154_:A3 I
*I _153_:A2 I
*I _139_:A2 I
*I _132_:X O
*CAP
242 _139_:A2 5.034052896000001e-05
243 *42:2 0.00056670656308
244 _153_:A2 5.034052896000001e-05
245 *42:3 0.0009109800183200002
246 *42:5 0.00043429369568000003
247 *42:1 0
248 _132_:X 0
249 *42:4 0
250 _154_:A3 0
*RES
358 _139_:A2 *42:1 0.4107142857142857
359 *42:2 *42:3 6.374999999999999
360 _153_:A2 *42:4 0.4107142857142857
361 *42:3 *42:5 10.321428571428571
362 *42:5 *42:6 4.857142857142857
363 _139_:A2 _139_:A2 0
364 *42:1 *42:3 0
365 _132_:X _132_:X 0
366 _132_:X *42:2 0
367 _153_:A2 _153_:A2 0
368 *42:4 *42:5 0
369 _154_:A3 _154_:A3 0
370 _154_:A3 *42:6 0
*END

*D_NET *43 0.00141368338168
*CONN
*I _136_:A I
*I _134_:A I
*I _133_:X O
*CAP
251 *43:1 0.0004803295904
252 *43:2 0.00012830406688
253 *43:3 0.0008050497244000001
254 _136_:A 0
255 _134_:A 0
256 _133_:X 0
*RES
371 *43:1 _136_:A 0.30357142857142855
372 *43:2 _134_:A 1.232142857142857
373 *43:3 *43:4 9.107142857142856
374 *43:1 *43:2 4.517857142857142
375 _136_:A _136_:A 0
376 _134_:A _134_:A 0
377 *43:2 *43:4 0
378 _133_:X _133_:X 0
379 _133_:X *43:3 0
*END

*D_NET *44 0.0034193798332800007
*CONN
*I _155_:A I
*I _143_:B I
*I _139_:B1 I
*I _135_:Y O
*CAP
257 _143_:B 0.0005960852944
258 *44:2 0.0005972748972799999
259 *44:3 4.017137184e-05
260 *44:4 0.00044015821855999997
261 *44:5 0.00036338428352000003
262 *44:7 0.0004078111222
263 _155_:A 0.00028423114272
264 *44:9 4.017137184e-05
265 *44:10 0.00040117644959999997
266 *44:8 0.00024891568132000004
267 _135_:Y 0
268 _139_:B1 0
269 *44:6 0
270 *44:13 0
271 *44:11 0
*RES
380 _143_:B *44:1 6.160714285714286
381 *44:2 *44:1 0.30357142857142855
382 *44:2 *44:3 5.75
383 *44:3 *44:4 0.30357142857142855
384 *44:4 _135_:Y 4.517857142857142
385 *44:5 _139_:B1 0.30357142857142855
386 *44:5 *44:6 3.2857142857142856
387 *44:7 *44:8 4.553571428571428
388 _155_:A *44:9 2.875
389 *44:9 *44:10 0.30357142857142855
390 *44:10 *44:11 4.107142857142857
391 *44:8 *44:12 2.7321428571428568
392 _143_:B _143_:B 0
393 _135_:Y _135_:Y 0
394 _139_:B1 _139_:B1 0
395 *44:6 *44:7 0
396 *44:13 *44:8 0
397 _155_:A _155_:A 0
398 *44:11 *44:12 0
*END

*D_NET *45 0.0016916340472799998
*CONN
*I _138_:A2 I
*I _136_:Y O
*CAP
272 *45:1 0.00038132854871999994
273 *45:3 0.00016728583584
274 _138_:A2 4.017137184e-05
275 _136_:Y 0.00110284829088
276 *45:5 0
277 *45:4 0
*RES
399 *45:1 *45:2 4.249999999999999
400 *45:3 *45:4 1.6428571428571428
401 _138_:A2 *45:3 0.30357142857142855
402 _136_:Y *45:5 11.5
403 _136_:Y _136_:Y 0
404 *45:5 *45:1 0
405 *45:4 *45:2 0
406 _138_:A2 _138_:A2 0
*END

*D_NET *46 0.0032144119216400008
*CONN
*I _163_:A I
*I _160_:A I
*I _138_:B1 I
*I _137_:Y O
*CAP
278 _137_:Y 0.00016728583584
279 *46:2 0.0009374625918000002
280 *46:4 8.932229792e-05
281 *46:5 0.00022243310784000002
282 *46:6 5.034052896000001e-05
283 *46:7 0.00059318913656
284 *46:9 0.00016728583584
285 *46:11 4.017137184e-05
286 *46:10 0.0009469212150399999
287 *46:1 0
288 _163_:A 0
289 _160_:A 0
290 _138_:B1 0
*RES
407 _137_:Y *46:1 1.6428571428571428
408 *46:2 *46:3 10.625
409 *46:4 _163_:A 0.8214285714285714
410 *46:5 *46:2 2.4285714285714284
411 *46:6 _160_:A 0.4107142857142857
412 *46:7 *46:8 6.678571428571428
413 *46:9 *46:10 1.6428571428571428
414 *46:11 _138_:B1 0.30357142857142855
415 *46:10 *46:11 9.857142857142856
416 _137_:Y _137_:Y 0
417 *46:1 *46:2 0
418 *46:4 *46:3 0
419 _163_:A _163_:A 0
420 *46:10 *46:5 0
421 _160_:A _160_:A 0
422 *46:6 *46:7 0
423 *46:9 *46:8 0
424 _138_:B1 _138_:B1 0
*END

*D_NET *47 0.00019332591635999998
*CONN
*I _139_:B2 I
*I _138_:X O
*CAP
291 *47:1 0.00014298538739999998
292 *47:3 5.034052896000001e-05
293 _139_:B2 0
294 _138_:X 0
*RES
425 *47:1 *47:2 1.5178571428571426
426 *47:3 _138_:X 0.4107142857142857
427 _139_:B2 _139_:B2 0
428 _139_:B2 *47:1 0
429 *47:3 *47:2 0
430 _138_:X _138_:X 0
*END

*D_NET *48 0.0014836864262399998
*CONN
*I _140_:A I
*I _139_:X O
*CAP
295 _140_:A 6.898398368e-05
296 _139_:X 0.0014147024425599998
*RES
431 _140_:A *48:1 0.6071428571428571
432 _139_:X *48:1 14.785714285714283
433 _140_:A _140_:A 0
434 _139_:X _139_:X 0
*END

*D_NET *49 0.00074026028468
*CONN
*I _142_:B2 I
*I _141_:Y O
*CAP
297 _142_:B2 4.017137184e-05
298 *49:2 0.00014298538739999998
299 *49:1 0.00055710352544
300 *49:4 0
301 _141_:Y 0
*RES
435 _142_:B2 *49:1 0.30357142857142855
436 *49:2 *49:3 1.5178571428571426
437 *49:1 *49:4 5.75
438 _142_:B2 _142_:B2 0
439 *49:4 *49:2 0
440 _141_:Y _141_:Y 0
441 _141_:Y *49:3 0
*END

*D_NET *50 0.00416721939232
*CONN
*I _157_:B I
*I _154_:A2 I
*I _153_:C1 I
*I _144_:B I
*I _143_:X O
*CAP
302 _143_:X 4.017137184e-05
303 *50:1 0.00067404883232
304 *50:3 0.0011040378937600002
305 _144_:B 4.017137184e-05
306 *50:5 0.00032836340175999997
307 *50:7 0.00016728583584
308 *50:8 0.00024643897664
309 *50:6 0.00046077626916000004
310 _157_:B 6.898398368e-05
311 *50:12 0.0009469212150399999
312 *50:10 9.002024044000002e-05
313 _153_:C1 0
314 _154_:A2 0
315 *50:9 0
*RES
442 _143_:X *50:1 0.30357142857142855
443 *50:1 *50:2 6.982142857142857
444 *50:3 *50:2 0.30357142857142855
445 *50:3 *50:4 11.089285714285714
446 _144_:B *50:4 0.30357142857142855
447 *50:5 *50:6 3.642857142857143
448 *50:7 *50:1 1.6428571428571428
449 *50:8 _154_:A2 0.30357142857142855
450 *50:8 *50:9 2.0535714285714284
451 *50:6 *50:10 5.160714285714286
452 _157_:B *50:11 0.6071428571428571
453 *50:12 *50:11 9.857142857142856
454 *50:10 *50:13 0.9107142857142857
455 _143_:X _143_:X 0
456 _144_:B _144_:B 0
457 _153_:C1 _153_:C1 0
458 _153_:C1 *50:6 0
459 *50:7 *50:5 0
460 _154_:A2 _154_:A2 0
461 *50:9 *50:10 0
462 _157_:B _157_:B 0
463 *50:12 *50:13 0
*END

*D_NET *51 0.0014153508065600003
*CONN
*I _152_:A2 I
*I _145_:B I
*I _144_:Y O
*CAP
316 *51:1 9.002024044000002e-05
317 _152_:A2 0.00090793944608
318 *51:4 4.017137184e-05
319 *51:5 0.00012830406688
320 *51:2 0.00024891568132000004
321 _144_:Y 0
322 *51:3 0
323 _145_:B 0
*RES
464 *51:1 *51:2 0.9107142857142857
465 _152_:A2 *51:3 9.446428571428571
466 *51:4 _145_:B 0.30357142857142855
467 *51:5 *51:4 1.232142857142857
468 *51:2 *51:6 2.7321428571428568
469 _144_:Y _144_:Y 0
470 _144_:Y *51:2 0
471 *51:3 *51:1 0
472 _152_:A2 _152_:A2 0
473 _145_:B _145_:B 0
474 *51:5 *51:6 0
*END

*D_NET *52 0.0019004766915600001
*CONN
*I _152_:B1 I
*I _146_:A I
*I _145_:Y O
*CAP
324 *52:1 5.034052896000001e-05
325 *52:2 0.00038132854871999994
326 *52:4 0.0005193113593599999
327 *52:7 8.932229792e-05
328 _152_:B1 4.017137184e-05
329 *52:8 0.00030188082828000006
330 *52:10 0.0005181217564799999
331 _145_:Y 0
332 _146_:A 0
333 *52:5 0
334 *52:11 0
*RES
475 *52:1 _146_:A 0.4107142857142857
476 *52:2 *52:3 4.249999999999999
477 *52:4 *52:5 4.928571428571428
478 *52:4 *52:6 0.30357142857142855
479 *52:7 *52:6 0.8214285714285714
480 _152_:B1 *52:7 0.30357142857142855
481 *52:8 *52:9 3.339285714285714
482 *52:10 _145_:Y 5.339285714285714
483 _145_:Y _145_:Y 0
484 _146_:A _146_:A 0
485 *52:1 *52:9 0
486 *52:10 *52:3 0
487 *52:5 *52:2 0
488 _152_:B1 _152_:B1 0
489 *52:11 *52:8 0
*END

*D_NET *53 0.0019453460232000002
*CONN
*I _150_:A2 I
*I _149_:A2 I
*I _148_:B I
*I _146_:Y O
*CAP
335 *53:1 0.00077856715092
336 _148_:B 5.034052896000001e-05
337 _150_:A2 0.0005960852944
338 _146_:Y 4.017137184e-05
339 *53:4 0.00019595053436
340 *53:6 0.00028423114272
341 *53:3 0
342 _149_:A2 0
*RES
490 *53:1 *53:2 8.803571428571427
491 _148_:B *53:3 0.4107142857142857
492 _150_:A2 _146_:Y 6.160714285714286
493 _146_:Y _146_:Y 0.30357142857142855
494 *53:4 *53:5 2.1249999999999996
495 *53:6 _150_:A2 2.875
496 _146_:Y _146_:Y 0
497 _146_:Y *53:2 0
498 *53:3 *53:1 0
499 _148_:B _148_:B 0
500 _150_:A2 _150_:A2 0
501 _149_:A2 _149_:A2 0
502 _149_:A2 *53:4 0
503 *53:6 *53:5 0
*END

*D_NET *54 0.0016053292818
*CONN
*I _149_:A3 I
*I _147_:Y O
*CAP
343 _149_:A3 4.017137184e-05
344 *54:1 0.00044015821855999997
345 *54:2 4.017137184e-05
346 *54:3 0.0005181217564799999
347 *54:5 0.00056670656308
348 *54:4 0
349 _147_:Y 0
*RES
504 _149_:A3 *54:1 0.30357142857142855
505 *54:1 *54:2 4.517857142857142
506 *54:2 *54:3 0.30357142857142855
507 *54:3 *54:4 5.339285714285714
508 *54:5 *54:6 6.374999999999999
509 _149_:A3 _149_:A3 0
510 *54:4 *54:5 0
511 _147_:Y _147_:Y 0
512 _147_:Y *54:6 0
*END

*D_NET *55 0.0015903521346399998
*CONN
*I _150_:B1 I
*I _149_:B2 I
*I _148_:Y O
*CAP
350 _149_:B2 0.00016728583584
351 *55:2 0.00056670656308
352 *55:4 0.00055710352544
353 *55:5 5.034052896000001e-05
354 *55:3 0.00024891568132000004
355 *55:1 0
356 _148_:Y 0
357 _150_:B1 0
*RES
513 _149_:B2 *55:1 1.6428571428571428
514 *55:2 *55:3 6.374999999999999
515 *55:4 _148_:Y 5.75
516 *55:5 _150_:B1 0.4107142857142857
517 *55:3 *55:6 2.7321428571428568
518 _149_:B2 _149_:B2 0
519 *55:1 *55:3 0
520 *55:4 *55:2 0
521 _148_:Y _148_:Y 0
522 _150_:B1 _150_:B1 0
523 *55:5 *55:6 0
*END

*D_NET *56 0.0012446932428
*CONN
*I _159_:B2 I
*I _159_:A1_N I
*I _154_:X O
*CAP
358 *56:1 0.00016946796088000002
359 _154_:X 0.00090793944608
360 _159_:A1_N 0.00016728583584
361 *56:3 0
362 _159_:B2 0
*RES
524 *56:1 *56:2 1.8214285714285714
525 _154_:X *56:3 9.446428571428571
526 _159_:A1_N _159_:B2 1.6428571428571428
527 _159_:A1_N _159_:A1_N 0
528 _159_:A1_N *56:1 0
529 *56:3 *56:2 0
530 _154_:X _154_:X 0
531 _159_:B2 _159_:B2 0
*END

*D_NET *57 0.0024807257978
*CONN
*I _161_:A I
*I _158_:A2 I